/*--------------------------------*- C++ -*----------------------------------*\
  =========                 |
  \\      /  F ield         | OpenFOAM: The Open Source CFD Toolbox
   \\    /   O peration     | Website:  https://openfoam.org
    \\  /    A nd           | Version:  6
     \\/     M anipulation  |
\*---------------------------------------------------------------------------*/
FoamFile
{
    version     2.0;
    format      ascii;
    class       dictionary;
    location    "system";
    object      fvSchemes;
}
// * * * * * * * * * * * * * * * * * * * * * * * * * * * * * * * * * * * * * //

ddtSchemes
{
    //default         localEuler;
    default         Euler;
}

gradSchemes
{
    default         Gauss linear;
}

divSchemes
{
    default         none;
    /*
    div(phi,U)          Gauss limitedLinearV 1;
    div(phi,Z)      	Gauss limitedLinear 1;
    div(phi,varZ)       Gauss limitedLinear 1;
    div(phi,K)          Gauss limitedLinear 1;
    div(phid,p)         Gauss limitedLinear 1;
    div(phi,epsilon)    Gauss limitedLinear 1;
    div(phi,Yi_h)       Gauss limitedLinear01 1;
    div(phi,k)          Gauss limitedLinear 1;
    div(((rho*nuEff)*dev2(T(grad(U)))))     Gauss linear;
*/
    div(phi,U)      Gauss upwind;
    div(phi,Z)      Gauss upwind;
    div(phi,Z_Yc)     Gauss upwind;
    div(phi,varZ)   Gauss upwind;
    div(phid,p)     Gauss upwind;
    div(phi,K)      Gauss linear;
    div(phi,k)      Gauss upwind;
    div(phi,epsilon) Gauss upwind;
    div(U)          Gauss linear;
    div(((rho*nuEff)*dev2(T(grad(U))))) Gauss linear;
    div(phi,Yi_h)   Gauss upwind;

}

laplacianSchemes
{
    default         Gauss linear orthogonal;
}

interpolationSchemes
{
    default         linear;
}

snGradSchemes
{
    default         orthogonal;
}


// ************************************************************************* //
